
     RDKit          3D

 48 52  0  0  0  0  0  0  0  0999 V2000
   -2.6879    2.6088   -0.7984 C   0  0  0  0  0  0  0  0  0  0  0  0
   -3.3508    3.8774   -1.2155 C   0  0  0  0  0  0  0  0  0  0  0  0
   -3.4580    1.5332   -0.4207 C   0  0  0  0  0  0  0  0  0  0  0  0
   -2.7642    0.3731   -0.0406 C   0  0  0  0  0  0  0  0  0  0  0  0
   -3.5436   -0.7677    0.4053 C   0  0  0  0  0  0  0  0  0  0  0  0
   -3.3518   -1.3258    1.6442 C   0  0  0  0  0  0  0  0  0  0  0  0
   -4.1081   -2.4156    2.0222 C   0  0  0  0  0  0  0  0  0  0  0  0
   -5.0662   -2.9657    1.1736 C   0  0  0  0  0  0  0  0  0  0  0  0
   -5.2578   -2.4093   -0.0612 C   0  0  0  0  0  0  0  0  0  0  0  0
   -4.5089   -1.3288   -0.4381 C   0  0  0  0  0  0  0  0  0  0  0  0
   -1.3873    0.3106   -0.0457 C   0  0  0  0  0  0  0  0  0  0  0  0
   -0.6906   -0.8323    0.3150 C   0  0  0  0  0  0  0  0  0  0  0  0
    0.6959   -0.8820    0.2955 C   0  0  0  0  0  0  0  0  0  0  0  0
    1.3983    0.2293   -0.0923 C   0  0  0  0  0  0  0  0  0  0  0  0
    2.7723    0.2585   -0.1276 C   0  0  0  0  0  0  0  0  0  0  0  0
    3.5296   -0.9179    0.2051 C   0  0  0  0  0  0  0  0  0  0  0  0
    4.5054   -0.9049    1.1763 C   0  0  0  0  0  0  0  0  0  0  0  0
    5.2553   -2.0232    1.4786 C   0  0  0  0  0  0  0  0  0  0  0  0
    5.0318   -3.1934    0.7968 C   0  0  0  0  0  0  0  0  0  0  0  0
    4.0563   -3.2437   -0.1890 C   0  0  0  0  0  0  0  0  0  0  0  0
    3.3230   -2.0955   -0.4634 C   0  0  0  0  0  0  0  0  0  0  0  0
    3.3697    1.4401   -0.5236 C   0  0  0  0  0  0  0  0  0  0  0  0
    2.6495    2.5455   -0.8712 C   0  0  0  0  0  0  0  0  0  0  0  0
    3.4001    3.7843   -1.2885 C   0  0  0  0  0  0  0  0  0  0  0  0
    1.3117    2.5158   -0.8378 N   0  0  0  0  0  0  0  0  0  0  0  0
    0.6915    1.3751   -0.4542 C   0  0  0  0  0  0  0  0  0  0  0  0
   -0.6922    1.4348   -0.4382 C   0  0  0  0  0  0  0  0  0  0  0  0
   -1.3469    2.5664   -0.8083 N   0  0  0  0  0  0  0  0  0  0  0  0
   -4.4435    3.7425   -1.3539 H   0  0  0  0  0  0  0  0  0  0  0  0
   -3.1012    4.6902   -0.5100 H   0  0  0  0  0  0  0  0  0  0  0  0
   -2.9121    4.1635   -2.2006 H   0  0  0  0  0  0  0  0  0  0  0  0
   -4.5358    1.5518   -0.4076 H   0  0  0  0  0  0  0  0  0  0  0  0
   -2.6241   -0.9223    2.3326 H   0  0  0  0  0  0  0  0  0  0  0  0
   -3.9348   -2.8265    2.9914 H   0  0  0  0  0  0  0  0  0  0  0  0
   -5.6267   -3.8122    1.5157 H   0  0  0  0  0  0  0  0  0  0  0  0
   -6.0071   -2.8494   -0.7085 H   0  0  0  0  0  0  0  0  0  0  0  0
   -4.6798   -0.9121   -1.4124 H   0  0  0  0  0  0  0  0  0  0  0  0
   -1.2339   -1.7304    0.6119 H   0  0  0  0  0  0  0  0  0  0  0  0
    1.1854   -1.7981    0.5999 H   0  0  0  0  0  0  0  0  0  0  0  0
    4.6957    0.0147    1.7266 H   0  0  0  0  0  0  0  0  0  0  0  0
    6.0136   -2.0043    2.2367 H   0  0  0  0  0  0  0  0  0  0  0  0
    5.6070   -4.1046    1.0079 H   0  0  0  0  0  0  0  0  0  0  0  0
    3.8749   -4.1558   -0.7275 H   0  0  0  0  0  0  0  0  0  0  0  0
    2.5851   -2.2035   -1.2492 H   0  0  0  0  0  0  0  0  0  0  0  0
    4.4498    1.4894   -0.5588 H   0  0  0  0  0  0  0  0  0  0  0  0
    3.8425    4.2916   -0.4264 H   0  0  0  0  0  0  0  0  0  0  0  0
    4.2634    3.4107   -1.9138 H   0  0  0  0  0  0  0  0  0  0  0  0
    2.8057    4.4177   -1.9523 H   0  0  0  0  0  0  0  0  0  0  0  0
  1  2  1  0
  1  3  2  0
  3  4  1  0
  4  5  1  0
  5  6  2  0
  6  7  1  0
  7  8  2  0
  8  9  1  0
  9 10  2  0
  4 11  2  0
 11 12  1  0
 12 13  2  0
 13 14  1  0
 14 15  2  0
 15 16  1  0
 16 17  2  0
 17 18  1  0
 18 19  2  0
 19 20  1  0
 20 21  2  0
 15 22  1  0
 22 23  2  0
 23 24  1  0
 23 25  1  0
 25 26  2  0
 26 27  1  0
 27 28  2  0
  1 28  1  0
  5 10  1  0
 11 27  1  0
 14 26  1  0
 16 21  1  0
  2 29  1  0
  2 30  1  0
  2 31  1  0
  3 32  1  0
  6 33  1  0
  7 34  1  0
  8 35  1  0
  9 36  1  0
 10 37  1  0
 12 38  1  0
 13 39  1  0
 17 40  1  0
 18 41  1  0
 19 42  1  0
 20 43  1  0
 21 44  1  0
 22 45  1  0
 24 46  1  0
 24 47  1  0
 24 48  1  0
M  END
