 xtb: 6.6.1 (8d0f1dd)
          11042413193D

 48 52  0     0  0            999 V2000
   -2.6294    2.5659   -0.8952 C   0  0  0  0  0  0  0  0  0  0  0  0
   -3.2605    3.8393   -1.3637 C   0  0  0  0  0  0  0  0  0  0  0  0
   -3.4244    1.4817   -0.4890 C   0  0  0  0  0  0  0  0  0  0  0  0
   -2.8265    0.3226   -0.0445 C   0  0  0  0  0  0  0  0  0  0  0  0
   -3.6604   -0.7967    0.4281 C   0  0  0  0  0  0  0  0  0  0  0  0
   -3.5114   -1.3002    1.7175 C   0  0  0  0  0  0  0  0  0  0  0  0
   -4.3159   -2.3336    2.1613 C   0  0  0  0  0  0  0  0  0  0  0  0
   -5.2743   -2.8794    1.3236 C   0  0  0  0  0  0  0  0  0  0  0  0
   -5.4328   -2.3797    0.0419 C   0  0  0  0  0  0  0  0  0  0  0  0
   -4.6356   -1.3404   -0.4019 C   0  0  0  0  0  0  0  0  0  0  0  0
   -1.4118    0.2524   -0.0487 C   0  0  0  0  0  0  0  0  0  0  0  0
   -0.6891   -0.9139    0.3229 C   0  0  0  0  0  0  0  0  0  0  0  0
    0.6657   -0.9372    0.2976 C   0  0  0  0  0  0  0  0  0  0  0  0
    1.4137    0.2028   -0.1042 C   0  0  0  0  0  0  0  0  0  0  0  0
    2.8295    0.2282   -0.1393 C   0  0  0  0  0  0  0  0  0  0  0  0
    3.6388   -0.9657    0.1629 C   0  0  0  0  0  0  0  0  0  0  0  0
    4.6061   -0.9190    1.1618 C   0  0  0  0  0  0  0  0  0  0  0  0
    5.3838   -2.0293    1.4356 C   0  0  0  0  0  0  0  0  0  0  0  0
    5.2135   -3.1944    0.7067 C   0  0  0  0  0  0  0  0  0  0  0  0
    4.2620   -3.2447   -0.2984 C   0  0  0  0  0  0  0  0  0  0  0  0
    3.4765   -2.1390   -0.5685 C   0  0  0  0  0  0  0  0  0  0  0  0
    3.4531    1.4087   -0.4792 C   0  0  0  0  0  0  0  0  0  0  0  0
    2.6826    2.5338   -0.8157 C   0  0  0  0  0  0  0  0  0  0  0  0
    3.3444    3.8200   -1.1992 C   0  0  0  0  0  0  0  0  0  0  0  0
    1.3721    2.5099   -0.8209 N   0  0  0  0  0  0  0  0  0  0  0  0
    0.7341    1.3887   -0.4700 C   0  0  0  0  0  0  0  0  0  0  0  0
   -0.7062    1.4048   -0.4688 C   0  0  0  0  0  0  0  0  0  0  0  0
   -1.3195    2.5227   -0.8698 N   0  0  0  0  0  0  0  0  0  0  0  0
   -3.9904    3.6396   -2.1463 H   0  0  0  0  0  0  0  0  0  0  0  0
   -3.7760    4.3267   -0.5369 H   0  0  0  0  0  0  0  0  0  0  0  0
   -2.4894    4.5035   -1.7417 H   0  0  0  0  0  0  0  0  0  0  0  0
   -4.5016    1.5673   -0.5015 H   0  0  0  0  0  0  0  0  0  0  0  0
   -2.7734   -0.8647    2.3762 H   0  0  0  0  0  0  0  0  0  0  0  0
   -4.1945   -2.7143    3.1651 H   0  0  0  0  0  0  0  0  0  0  0  0
   -5.8981   -3.6901    1.6702 H   0  0  0  0  0  0  0  0  0  0  0  0
   -6.1810   -2.8006   -0.6140 H   0  0  0  0  0  0  0  0  0  0  0  0
   -4.7543   -0.9537   -1.4041 H   0  0  0  0  0  0  0  0  0  0  0  0
   -1.2425   -1.7933    0.6185 H   0  0  0  0  0  0  0  0  0  0  0  0
    1.2001   -1.8275    0.5956 H   0  0  0  0  0  0  0  0  0  0  0  0
    4.7339   -0.0106    1.7331 H   0  0  0  0  0  0  0  0  0  0  0  0
    6.1262   -1.9852    2.2192 H   0  0  0  0  0  0  0  0  0  0  0  0
    5.8230   -4.0603    0.9191 H   0  0  0  0  0  0  0  0  0  0  0  0
    4.1315   -4.1489   -0.8750 H   0  0  0  0  0  0  0  0  0  0  0  0
    2.7438   -2.1735   -1.3623 H   0  0  0  0  0  0  0  0  0  0  0  0
    4.5319    1.4636   -0.5128 H   0  0  0  0  0  0  0  0  0  0  0  0
    3.9940    4.1657   -0.3965 H   0  0  0  0  0  0  0  0  0  0  0  0
    3.9546    3.6789   -2.0901 H   0  0  0  0  0  0  0  0  0  0  0  0
    2.5845    4.5690   -1.3986 H   0  0  0  0  0  0  0  0  0  0  0  0
  1  2  1  0  0  0  0
  1  3  4  0  0  0  0
  3  4  4  0  0  0  0
  4  5  1  0  0  0  0
  5  6  4  0  0  0  0
  6  7  4  0  0  0  0
  7  8  4  0  0  0  0
  8  9  4  0  0  0  0
  5 10  4  0  0  0  0
  9 10  4  0  0  0  0
  4 11  4  0  0  0  0
 11 12  4  0  0  0  0
 12 13  2  0  0  0  0
 13 14  4  0  0  0  0
 14 15  4  0  0  0  0
 15 16  1  0  0  0  0
 16 17  4  0  0  0  0
 17 18  4  0  0  0  0
 18 19  4  0  0  0  0
 19 20  4  0  0  0  0
 16 21  4  0  0  0  0
 20 21  4  0  0  0  0
 15 22  4  0  0  0  0
 22 23  4  0  0  0  0
 23 24  1  0  0  0  0
 23 25  4  0  0  0  0
 14 26  4  0  0  0  0
 25 26  4  0  0  0  0
 11 27  4  0  0  0  0
 26 27  1  0  0  0  0
  1 28  4  0  0  0  0
 27 28  4  0  0  0  0
  2 29  1  0  0  0  0
  2 30  1  0  0  0  0
  2 31  1  0  0  0  0
  3 32  1  0  0  0  0
  6 33  1  0  0  0  0
  7 34  1  0  0  0  0
  8 35  1  0  0  0  0
  9 36  1  0  0  0  0
 10 37  1  0  0  0  0
 12 38  1  0  0  0  0
 13 39  1  0  0  0  0
 17 40  1  0  0  0  0
 18 41  1  0  0  0  0
 19 42  1  0  0  0  0
 20 43  1  0  0  0  0
 21 44  1  0  0  0  0
 22 45  1  0  0  0  0
 24 46  1  0  0  0  0
 24 47  1  0  0  0  0
 24 48  1  0  0  0  0
M  END
